amdsmb
ichsmb
iicbb
iicbus
iic
iicsmb
lpbb
nfsmb
pcf
smb
smbus
